data/SEN_Matlab_PSAT_version2012_PF_mdl.m
Bus.con = [ ... 
  1  230  0.96856  -0.61292  1  1;
  2  230  0.953  -0.54917  1  1;
  3  230  1.0002  -0.2833  1  1;
  4  230  1.008  -0.27165  1  1;
  5  400  1.0265  -0.25382  1  1;
  6  230  1.0576  -0.61106  1  1;
  7  230  0.96771  -0.42846  1  1;
  8  230  0.99306  -0.51836  1  1;
  9  230  1.0195  -0.72939  1  1;
  10  230  0.95441  -0.84457  1  1;
  11  230  0.92897  -0.59157  1  1;
  12  230  0.99766  -0.53707  1  1;
  13  115  0.99722  -0.20566  1  1;
  14  400  1.07  -0.020149  1  1;
  15  115  1.0009  -0.19751  1  1;
  16  230  1.0178  -0.22895  1  1;
  17  230  0.94143  -0.58376  1  1;
  18  115  1.0447  -0.081846  1  1;
  19  230  1.0183  -0.23912  1  1;
  20  230  0.9367  -0.47429  1  1;
  21  400  0.90978  -0.37531  1  1;
  22  230  0.97044  -0.53562  1  1;
  23  115  1.02  -0.118  1  1;
  24  138  1.0046  -0.90972  1  1;
  25  230  0.99316  -0.83224  1  1;
  26  400  0.96966  -0.72924  1  1;
  27  230  1.0059  -0.83355  1  1;
  28  115  0.98444  -0.26004  1  1;
  29  115  0.98025  -0.26446  1  1;
  30  400  1.1192  -0.12256  1  1;
  31  230  1.0561  -0.68744  1  1;
  32  230  1.0055  -0.23512  1  1;
  33  138  1.0573  -0.90473  1  1;
  34  230  1.0067  -0.85005  1  1;
  35  230  0.98193  -0.81876  1  1;
  36  400  0.96726  -0.71909  1  1;
  37  230  0.975  -0.21147  1  1;
  38  400  1.0506  -0.17198  1  1;
  39  230  1.0419  -0.70804  1  1;
  40  230  1.0017  -0.2328  1  1;
  41  400  0.99372  -0.23808  1  1;
  42  400  1  0  1  1;
  43  400  1  0  1  1;
  44  230  1  0  1  1;
  45  230  1  0  1  1;
  46  230  1.0021  -0.55915  1  1;
  47  230  1  0  1  1;
  48  115  1.0023  -0.25717  1  1;
  49  230  1.02  -0.24902  1  1;
  50  230  1.07  -0.19263  1  1;
  51  400  1.0142  -0.15088  1  1;
  52  230  1.0719  -0.13773  1  1;
  53  400  1.07  -0.05981  1  1;
  54  400  1.0552  -0.050057  1  1;
  55  765  1.07  0  1  1;
  56  115  0.95525  -0.20379  1  1;
  57  230  0.97836  -0.32408  1  1;
  58  400  1.0223  -0.26866  1  1;
  59  230  1.0104  -0.46538  1  1;
  60  230  0.98578  -0.53261  1  1;
  61  400  0.97877  -0.4492  1  1;
  62  765  0.99847  -0.42871  1  1;
  63  400  1.0615  -0.13875  1  1;
  64  230  0.98199  -0.50182  1  1;
  65  400  1.002  -0.44264  1  1;
  66  765  1.05  -0.39644  1  1;
  67  230  1.0094  -0.18727  1  1;
  68  400  1.146  -0.14257  1  1;
  69  230  1.0163  -0.62695  1  1;
  70  115  1.05  -0.034407  1  1;
  71  400  1.07  -0.075961  1  1;
  72  230  0.95279  -0.55856  1  1;
  73  765  1.0746  -0.10559  1  1;
  74  115  0.98025  -0.26446  1  1;
  75  230  0.93938  -0.84702  1  1;
  76  230  1.0023  -0.83915  1  1;
  77  230  0.98896  -0.82269  1  1;
  78  138  1.0547  -0.91261  1  1;
  79  230  1.0045  -0.84235  1  1;
  80  400  1.0189  -0.15846  1  1;
  81  230  0.99933  -0.4575  1  1;
  82  230  0.98842  -0.82663  1  1;
  83  230  0.99115  -0.50302  1  1;
  84  400  1.05  -0.41469  1  1;
  85  230  1.07  -0.62878  1  1;
  86  115  1.02  0.054618  1  1;
  87  115  0.99383  0.019735  1  1;
  88  138  1.07  -0.91379  1  1;
  89  230  0.92904  -0.47497  1  1;
  90  230  1.07  -0.64372  1  1;
  91  230  0.94718  -0.5857  1  1;
  92  230  1.0021  -0.55915  1  1;
  93  400  1.0293  -0.26664  1  1;
  94  765  1.05  -0.2544  1  1;
  95  230  1.0593  -0.69162  1  1;
  96  230  1.0158  -0.30624  1  1;
  97  230  0.93698  -0.47554  1  1;
  98  400  0.90882  -0.3702  1  1;
  99  230  1.0224  -0.42388  1  1;
  100  765  1.0514  -0.36841  1  1;
  101  230  1.05  -0.45942  1  1;
  102  230  1.0585  -0.6092  1  1;
  103  230  0.95955  -0.48769  1  1;
  104  138  1.0329  -0.91001  1  1;
  105  230  0.99849  -0.84504  1  1;
  106  138  1.07  -0.87735  1  1;
  107  230  1.0674  -0.65301  1  1;
  108  230  0.94798  -0.58922  1  1;
  109  230  0.9567  -0.546  1  1;
  110  400  0.94273  -0.52379  1  1;
  111  765  0.98704  -0.46859  1  1;
 ];

Line.con = [ ... 
  55  54  1500  765  60  0  1.9124  0.01  0.2  0  0  0  0  0  0  1;
  55  54  1500  765  60  0  1.9124  0.01  0.2  0  0  0  0  0  0  1;
  5  4  900  400  60  0  1.7391  0.01  0.2  0  0  0  0  0  0  1;
  21  20  450  400  60  0  1.7391  0.01  0.2  0  0  0  0  0  0  1;
  98  97  450  400  60  0  1.7391  0.01  0.2  0  0  0  0  0  0  1;
  55  54  1500  765  60  0  1.9124  0.01  0.2  0  0  0  0  0  0  1;
  98  97  450  400  60  0  1.7391  0.01  0.2  0  0  0  0  0  0  1;
  100  99  1000  765  60  0  3.3256  0.01  0.2  0  0  0  0  0  0  1;
  100  99  1000  765  60  0  3.3256  0.01  0.2  0  0  0  0  0  0  1;
  66  65  1500  765  60  0  1.9124  0.01  0.2  0  0  0  0  0  0  1;
  65  64  450  400  60  0  1.7391  0.01  0.2  0  0  0  0  0  0  1;
  65  64  450  400  60  0  1.7391  0.01  0.2  0  0  0  0  0  0  1;
  66  64  1000  765  60  0  3.3256  0.01  0.2  0  0  0  0  0  0  1;
  62  60  1000  765  60  0  3.3256  0.01  0.2  0  0  0  0  0  0  1;
  62  60  1000  765  60  0  3.3256  0.01  0.2  0  0  0  0  0  0  1;
  61  60  900  400  60  0  1.7391  0.01  0.2  0  0  0  0  0  0  1;
  53  52  450  400  60  0  1.7391  0.01  0.2  0  0  0  0  0  0  1;
  84  83  450  400  60  0  1.7391  0.01  0.2  0  0  0  0  0  0  1;
  111  110  1500  765  60  0  1.9124  0.01  0.2  0  0  0  0  0  0  1;
  111  109  1000  765  60  0  3.3256  0.01  0.2  0  0  0  0  0  0  1;
  94  93  1500  765  60  0  1.9124  0.01  0.2  0  0  0  0  0  0  1;
  110  109  900  400  60  0  1.7391  0.01  0.2  0  0  0  0  0  0  1;
  36  35  1350  400  60  0  1.7391  0.01  0.2  0  0  0  0  0  0  1;
  94  93  1500  765  60  0  1.9124  0.01  0.2  0  0  0  0  0  0  1;
  57  56  300  230  60  0  2  0.01  0.2  0  0  0  0  0  0  1;
  26  25  450  400  60  0  1.7391  0.01  0.2  0  0  0  0  0  0  1;
  105  104  333  230  60  0  1.6666  0.01  0.2  0  0  0  0  0  0  1;
  79  78  333  230  60  0  1.6666  0.01  0.2  0  0  0  0  0  0  1;
  34  33  333  230  60  0  1.6666  0.01  0.2  0  0  0  0  0  0  1;
  38  37  450  400  60  0  1.7391  0.01  0.2  0  0  0  0  0  0  1;
  25  24  333  230  60  0  1.6666  0.01  0.2  0  0  0  0  0  0  1;
  54  53  1000  400  60  0  1  0.01  0.2  0  0  0  0  0  0  1;
  68  67  300  400  60  0  1.913043  0.01  0.2  0  0  0  0  0  0  1;
  38  37  450  400  60  0  1.7391  0.01  0.2  0  0  0  0  0  0  1;
  111  109  1000  765  60  0  3.3256  0.01  0.2  0  0  0  0  0  0  1;
  41  40  600  400  60  0  1.7391  0.01  0.2  0  0  0  0  0  0  1;
  16  15  300  230  60  0  2  0.01  0.2  0  0  0  0  0  0  1;
  49  48  450  230  60  0  2  0.01  0.2  0  0  0  0  0  0  1;
  73  55  100  765  60  161  0  0.012  0.0008727  1.320457e-008  0  0  25.29  22.76  25.29  1;
  73  55  100  765  60  161  0  0.012  0.0008727  1.320457e-008  0  0  25.29  22.76  25.29  1;
  99  59  100  230  60  43.6  0  0.05  0.001294461  8.941863e-009  0  0  27.3  24.9  27.3  1;
  32  16  100  230  60  109  0  0.05  0.001294461  8.941863e-009  0  0  10.9  9.9  10.9  1;
  53  38  100  400  60  187  0  0.03380645  0.000933966  1.26263e-008  0  0  26.7  24.3  26.7  1;
  9  75  100  230  60  130  0  0.05  0.001294461  8.941863e-009  0  0  9.2  8.3  9.2  1;
  109  75  100  230  60  300  0  0.05  0.001294461  8.941863e-009  0  0  4  3.6  4  1;
  109  75  100  230  60  300  0  0.05  0.001294461  8.941863e-009  0  0  4  3.6  4  1;
  52  50  100  230  60  68  0  0.05  0.001294461  8.941863e-009  0  0  17.5  15.9  17.5  1;
  109  11  100  230  60  25  0  0.05  0.001294461  8.941863e-009  0  0  47.7  43.4  47.7  1;
  12  64  100  230  60  152  0  0.05  0.001294461  8.941863e-009  0  0  7.8  7.1  7.8  1;
  12  64  100  230  60  152  0  0.05  0.001294461  8.941863e-009  0  0  7.8  7.1  7.8  1;
  92  12  100  230  60  150  0  0.05  0.001294461  8.941863e-009  0  0  7.9  7.2  7.9  1;
  71  30  100  400  60  144.2  0  0.03380645  0.000933966  1.26263e-008  0  0  34.7  31.5  34.7  1;
  11  60  100  230  60  134  0  0.05  0.001294461  8.941863e-009  0  0  8.9  8.1  8.9  1;
  95  31  100  230  60  80  0  0.05  0.001294461  8.941863e-009  0  0  14.9  13.6  14.9  1;
  10  35  100  230  60  50  0  0.05  0.001294461  8.941863e-009  0  0  23.8  21.7  23.8  1;
  75  35  100  230  60  67  0  0.05  0.001294461  8.941863e-009  0  0  17.8  16.2  17.8  1;
  75  10  100  230  60  44  0  0.05  0.001294461  8.941863e-009  0  0  27.1  24.6  27.1  1;
  95  31  100  230  60  80  0  0.05  0.001294461  8.941863e-009  0  0  14.9  13.6  14.9  1;
  107  90  100  230  60  13  0  0.05  0.001294461  8.941863e-009  0  0  91.7  83.4  91.7  1;
  39  107  100  230  60  133  0  0.05  0.001294461  8.941863e-009  0  0  9  8.2  9  1;
  9  85  100  230  60  95.4  0  0.05  0.001294461  8.941863e-009  0  0  12.5  11.4  12.5  1;
  57  83  532  230  60  224  0  0.05  0.001294461  8.941863e-009  0  0  5.3  4.8  5.3  1;
  30  68  100  400  60  153.9  0  0.03380645  0.000933966  1.26263e-008  0  0  32.5  29.5  32.5  1;
  6  69  100  230  60  80  0  0.05  0.001294461  8.941863e-009  0  0  14.9  13.6  14.9  1;
  57  83  532  230  60  224  0  0.05  0.001294461  8.941863e-009  0  0  5.3  4.8  5.3  1;
  1  109  100  230  60  80  0  0.05  0.001294461  8.941863e-009  0  0  14.9  13.6  14.9  1;
  36  26  100  400  60  38  0  0.03380645  0.000933966  1.26263e-008  0  0  131.5  119.6  131.5  1;
  33  88  100  138  60  6.2  0  0.125  0.000994719  7.460394e-009  0  0  90.1  81.9  90.1  1;
  82  25  100  230  60  9.8  0  0.05  0.001294461  8.941863e-009  0  0  121.7  110.6  121.7  1;
  35  77  100  230  60  6  0  0.05  0.001294461  8.941863e-009  0  0  198.7  180.7  198.7  1;
  35  76  100  230  60  16.1  0  0.05  0.001294461  8.941863e-009  0  0  74.1  67.3  74.1  1;
  33  88  100  138  60  6.2  0  0.125  0.000994719  7.460394e-009  0  0  90.1  81.9  90.1  1;
  82  77  100  230  60  9  0  0.19253  0.00021157  4.16e-007  0  0  810.6  736.9  810.6  1;
  41  80  100  400  60  169  0  0.03380645  0.000933966  1.26263e-008  0  0  29.6  26.9  29.6  1;
  78  88  100  138  60  4.3  0  0.125  0.000994719  7.460394e-009  0  0  129.9  118.1  129.9  1;
  25  105  100  230  60  12  0  0.05  0.001294461  8.941863e-009  0  0  99.4  90.3  99.4  1;
  24  104  100  138  60  12  0  0.125  0.000994719  7.460394e-009  0  0  46.6  42.3  46.6  1;
  79  76  100  230  60  9  0  0.023  0.00036046  3.57e-007  0  0  475.8  432.5  475.8  1;
  25  34  100  230  60  19  0  0.05  0.001294461  8.941863e-009  0  0  62.8  57.1  62.8  1;
  33  106  100  138  60  15.4  0  0.125  0.000994719  7.460394e-009  0  0  36.3  33  36.3  1;
  33  106  100  138  60  15.4  0  0.125  0.000994719  7.460394e-009  0  0  36.3  33  36.3  1;
  104  88  100  138  60  10.7  0  0.125  0.000994719  7.460394e-009  0  0  52.2  47.5  52.2  1;
  27  25  100  230  60  124  0  0.05  0.001294461  8.941863e-009  0  0  9.6  8.7  9.6  1;
  104  33  100  138  60  12.2  0  0.125  0.000994719  7.460394e-009  0  0  45.8  41.6  45.8  1;
  99  81  100  230  60  20.2  0  0.05  0.001294461  8.941863e-009  0  0  59  53.7  59  1;
  66  62  100  765  60  65  0  0.012  0.0008727  1.320457e-008  0  0  25.29  22.76  25.29  1;
  85  6  100  230  60  59  0  0.05  0.001294461  8.941863e-009  0  0  20.2  18.4  20.2  1;
  56  87  100  115  60  82  0  0.125  0.000994719  7.460394e-009  0  0  6.8  6.2  6.8  1;
  69  1  100  230  60  111  0  0.05  0.001294461  8.941863e-009  0  0  10.7  9.8  10.7  1;
  54  14  100  400  60  62.1  0  0.03380645  0.000933966  1.26263e-008  0  0  80.5  73.2  80.5  1;
  56  23  100  115  60  12  0  0.125  0.000994719  7.460394e-009  0  0  45.8  41.6  45.8  1;
  38  5  100  400  60  152  0  0.03380645  0.000933966  1.26263e-008  0  0  32.9  29.9  32.9  1;
  58  5  100  400  60  40  0  0.03380645  0.000933966  1.26263e-008  0  0  125  114  125  1;
  67  96  100  230  60  197.3  0  0.05  0.001294461  8.941863e-009  0  0  6  5.5  6  1;
  96  7  100  230  60  206  0  0.05  0.001294461  8.941863e-009  0  0  5.8  5.3  5.8  1;
  51  54  100  400  60  68  0  0.03380645  0.000933966  1.26263e-008  0  0  73.5  66.8  73.5  1;
  87  86  100  115  60  10  0  0.125  0.000994719  7.460394e-009  0  0  45.8  41.6  45.8  1;
  49  16  100  230  60  140  0  0.05  0.001294461  8.941863e-009  0  0  8.5  7.7  8.5  1;
  50  19  100  230  60  64  0  0.05  0.001294461  8.941863e-009  0  0  18.6  16.9  18.6  1;
  87  86  100  115  60  10  0  0.125  0.000994719  7.460394e-009  0  0  45.8  41.6  45.8  1;
  28  48  100  115  60  27  0  0.125  0.000994719  7.460394e-009  0  0  20.7  18.8  20.7  1;
  32  16  100  230  60  109  0  0.05  0.001294461  8.941863e-009  0  0  10.9  9.9  10.9  1;
  70  18  100  115  60  29  0  0.023  0.00036046  3.57e-007  0  0  147  134  147  1;
  51  54  100  400  60  68  0  0.03380645  0.000933966  1.26263e-008  0  0  73.5  66.8  73.5  1;
  20  97  100  230  60  7  0  0.05  0.001294461  8.941863e-009  0  0  170  155  170  1;
  6  1  100  230  60  160  0  0.05  0.001294461  8.941863e-009  0  0  7.5  6.8  7.5  1;
  53  63  100  400  60  132  0  0.03380645  0.000933966  1.26263e-008  0  0  37.9  34.4  37.9  1;
  31  107  100  230  60  87  0  0.05  0.001294461  8.941863e-009  0  0  13.7  12.5  13.7  1;
  102  6  100  230  60  2  0  0.05  0.001294461  8.941863e-009  0  0  596  542  596  1;
  28  48  100  115  60  27  0  0.125  0.000994719  7.460394e-009  0  0  20.7  18.8  20.7  1;
  60  83  100  230  60  64  0  0.05  0.001294461  8.941863e-009  0  0  18.6  16.9  18.6  1;
  97  81  100  230  60  30  0  0.05  0.001294461  8.941863e-009  0  0  39.7  36.1  39.7  1;
  29  28  100  115  60  7  0  0.125  0.000994719  7.460394e-009  0  0  80  72.5  80  1;
  74  29  100  115  60  7  0  0.125  0.000994719  7.460394e-009  0  0  80  72.5  80  1;
  74  28  100  115  60  7  0  0.125  0.000994719  7.460394e-009  0  0  80  72.5  80  1;
  15  13  100  115  60  7  0  0.125  0.000994719  7.460394e-009  0  0  80  72.5  80  1;
  13  28  100  115  60  68  0  0.125  0.000994719  7.460394e-009  0  0  8.2  7.5  8.2  1;
  63  38  100  400  60  56  0  0.03380645  0.000933966  1.26263e-008  0  0  89.3  81.1  89.3  1;
  15  28  100  115  60  71  0  0.125  0.000994719  7.460394e-009  0  0  8.2  7.5  8.2  1;
  18  15  100  115  60  51  0  0.125  0.000994719  7.460394e-009  0  0  11  10  11  1;
  18  15  100  115  60  51  0  0.125  0.000994719  7.460394e-009  0  0  11  10  11  1;
  56  87  100  115  60  82  0  0.125  0.000994719  7.460394e-009  0  0  6.8  6.2  6.8  1;
  92  12  100  230  60  150  0  0.05  0.001294461  8.941863e-009  0  0  7.9  7.2  7.9  1;
  107  45  100  230  60  13  0  0.05  0.001294461  8.941863e-009  0  0  91.7  83.4  91.7  1;
  10  44  100  230  60  44  0  0.05  0.001294461  8.941863e-009  0  0  27.1  24.6  27.1  1;
  46  12  100  230  60  10  0  0.05  0.001294461  8.941863e-009  0  0  119  108  119  1;
  97  47  100  230  60  10  0  0.05  0.001294461  8.941863e-009  0  0  119  108  119  1;
  53  38  100  400  60  187  0  0.03380645  0.000933966  1.26263e-008  0  0  26.7  24.3  26.7  1;
  42  58  100  400  60  10  0  0.03380645  0.000933966  1.26263e-008  0  0  500  454  500  1;
  43  38  100  400  60  10  0  0.03380645  0.000933966  1.26263e-008  0  0  500  454  500  1;
  52  50  100  230  60  68  0  0.05  0.001294461  8.941863e-009  0  0  17.5  15.9  17.5  1;
  73  55  100  765  60  161  0  0.012  0.0008727  1.320457e-008  0  0  25.29  22.76  25.29  1;
  93  98  100  400  60  164  0  0.03380645  0.000933966  1.26263e-008  0  0  30.5  27.7  30.5  1;
  20  97  100  230  60  7  0  0.05  0.001294461  8.941863e-009  0  0  170  155  170  1;
  38  93  100  400  60  210  0  0.03380645  0.000933966  1.26263e-008  0  0  23.8  21.6  23.8  1;
  93  58  100  400  60  165  0  0.03380645  0.000933966  1.26263e-008  0  0  30.3  27.5  30.3  1;
  4  3  100  230  60  8  0  0.05  0.001294461  8.941863e-009  0  0  149  136  149  1;
  37  19  100  230  60  126  0  0.05  0.001294461  8.941863e-009  0  0  9.5  8.6  9.5  1;
  99  81  100  230  60  20.2  0  0.05  0.001294461  8.941863e-009  0  0  59  53.7  59  1;
  38  93  100  400  60  210  0  0.03380645  0.000933966  1.26263e-008  0  0  23.8  21.6  23.8  1;
  37  3  100  230  60  142  0  0.05  0.001294461  8.941863e-009  0  0  8.4  7.6  8.4  1;
  4  49  100  230  60  21  0  0.05  0.001294461  8.941863e-009  0  0  56.8  51.5  56.8  1;
  94  73  100  765  60  225  0  0.012  0.0008727  1.320457e-008  0  0  25.29  22.76  25.29  1;
  40  32  100  230  60  31  0  0.05  0.001294461  8.941863e-009  0  0  38.5  35  38.5  1;
  37  3  100  230  60  142  0  0.05  0.001294461  8.941863e-009  0  0  8.4  7.6  8.4  1;
  2  97  100  230  60  100  0  0.05  0.001294461  8.941863e-009  0  0  11.9  10.8  11.9  1;
  89  97  100  230  60  64  0  0.05  0.001294461  8.941863e-009  0  0  18.6  16.9  18.6  1;
  37  40  100  230  60  148  0  0.05  0.001294461  8.941863e-009  0  0  8.1  7.3  8.1  1;
  93  98  100  400  60  164  0  0.03380645  0.000933966  1.26263e-008  0  0  30.5  27.7  30.5  1;
  37  19  100  230  60  126  0  0.05  0.001294461  8.941863e-009  0  0  9.5  8.6  9.5  1;
  89  3  100  230  60  192  0  0.05  0.001294461  8.941863e-009  0  0  6.2  5.6  6.2  1;
  21  98  100  400  60  10  0  0.03380645  0.000933966  1.26263e-008  0  0  500  454  500  1;
  100  94  100  765  60  182  0  0.012  0.0008727  1.320457e-008  0  0  25.29  22.76  25.29  1;
  94  73  100  765  60  225  0  0.012  0.0008727  1.320457e-008  0  0  25.29  22.76  25.29  1;
  100  66  100  765  60  90  0  0.012  0.0008727  1.320457e-008  0  0  25.29  22.76  25.29  1;
  62  111  100  765  60  123  0  0.012  0.0008727  1.320457e-008  0  0  25.29  22.76  25.29  1;
  62  111  100  765  60  123  0  0.012  0.0008727  1.320457e-008  0  0  25.29  22.76  25.29  1;
  62  94  100  765  60  270  0  0.012  0.0008727  1.320457e-008  0  0  25.29  22.76  25.29  1;
  66  94  100  765  60  211  0  0.012  0.0008727  1.320457e-008  0  0  25.29  22.76  25.29  1;
  101  8  100  230  60  18.4  0  0.05  0.001294461  8.941863e-009  0  0  64.8  58.9  64.8  1;
  99  59  100  230  60  43.6  0  0.05  0.001294461  8.941863e-009  0  0  27.3  24.9  27.3  1;
  51  71  100  400  60  33.3  0  0.03380645  0.000933966  1.26263e-008  0  0  150  137  150  1;
  59  81  100  230  60  10.4  0  0.05  0.001294461  8.941863e-009  0  0  114.7  104.2  114.7  1;
  36  26  100  400  60  38  0  0.03380645  0.000933966  1.26263e-008  0  0  131.5  119.6  131.5  1;
  94  73  100  765  60  225  0  0.012  0.0008727  1.320457e-008  0  0  25.29  22.76  25.29  1;
  97  22  100  230  60  38  0  0.05  0.001294461  8.941863e-009  0  0  31.4  28.5  31.4  1;
  82  25  100  230  60  9.8  0  0.05  0.001294461  8.941863e-009  0  0  121.7  110.6  121.7  1;
  59  101  100  230  60  16.8  0  0.05  0.001294461  8.941863e-009  0  0  71  64.5  71  1;
  101  22  100  230  60  31.5  0  0.05  0.001294461  8.941863e-009  0  0  37.9  34.4  37.9  1;
  8  22  100  230  60  13.1  0  0.05  0.001294461  8.941863e-009  0  0  91  82.7  91  1;
  4  49  100  230  60  21  0  0.05  0.001294461  8.941863e-009  0  0  56.8  51.5  56.8  1;
  50  19  100  230  60  64  0  0.05  0.001294461  8.941863e-009  0  0  18.6  16.9  18.6  1;
  82  77  100  230  60  9  0  0.19253  0.00021157  4.16e-007  0  0  810.6  736.9  810.6  1;
  35  77  100  230  60  6  0  0.05  0.001294461  8.941863e-009  0  0  198.7  180.7  198.7  1;
  110  36  100  400  60  314  0  0.03380645  0.000861826  1.26263e-008  0  0  15.9  14.5  15.9  1;
  14  71  100  400  60  27.2  0  0.03380645  0.000933966  1.26263e-008  0  0  184  167  184  1;
  110  36  100  400  60  314  0  0.03380645  0.000861826  1.26263e-008  0  0  15.9  14.5  15.9  1;
  107  90  100  230  60  13  0  0.05  0.001294461  8.941863e-009  0  0  91.7  83.4  91.7  1;
  39  9  100  230  60  120  0  0.05  0.001294461  8.941863e-009  0  0  10  9  10  1;
  20  103  100  230  60  44  0  0.05  0.001294461  8.941863e-009  0  0  27.1  24.6  27.1  1;
  61  65  100  400  60  68  0  0.03380645  0.000933966  1.26263e-008  0  0  73.5  66.8  73.5  1;
  60  2  100  230  60  81  0  0.05  0.001294461  8.941863e-009  0  0  14.7  13.4  14.7  1;
  20  64  100  230  60  94  0  0.05  0.001294461  8.941863e-009  0  0  12.7  11.5  12.7  1;
  103  64  100  230  60  50  0  0.05  0.001294461  8.941863e-009  0  0  23.8  21.7  23.8  1;
  85  6  100  230  60  59  0  0.05  0.001294461  8.941863e-009  0  0  20.2  18.4  20.2  1;
  31  107  100  230  60  87  0  0.05  0.001294461  8.941863e-009  0  0  13.7  12.5  13.7  1;
  53  80  100  400  60  84.2  0  0.03380645  0.000933966  1.26263e-008  0  0  59.4  54  59.4  1;
  61  65  100  400  60  68  0  0.03380645  0.000933966  1.26263e-008  0  0  73.5  66.8  73.5  1;
  97  3  100  230  60  256  0  0.05  0.001294461  8.941863e-009  0  0  4.7  4.2  4.7  1;
  4  3  100  230  60  8  0  0.05  0.001294461  8.941863e-009  0  0  149  136  149  1;
  41  80  100  400  60  169  0  0.03380645  0.000933966  1.26263e-008  0  0  29.6  26.9  29.6  1;
  37  40  100  230  60  148  0  0.05  0.001294461  8.941863e-009  0  0  8.1  7.3  8.1  1;
  49  16  100  230  60  140  0  0.05  0.001294461  8.941863e-009  0  0  8.5  7.7  8.5  1;
  64  2  100  230  60  31  0  0.05  0.001294461  8.941863e-009  0  0  38.5  35  38.5  1;
  60  64  100  230  60  65  0  0.05  0.001294461  8.941863e-009  0  0  18.3  16.7  18.3  1;
  64  72  100  230  60  30.3  0  0.05  0.001294461  8.941863e-009  0  0  39.4  35.8  39.4  1;
  60  2  100  230  60  81  0  0.05  0.001294461  8.941863e-009  0  0  14.7  13.4  14.7  1;
  51  80  100  400  60  22.5  0  0.03380645  0.000933966  1.26263e-008  0  0  222  202  222  1;
  64  2  100  230  60  31  0  0.05  0.001294461  8.941863e-009  0  0  38.5  35  38.5  1;
  91  72  100  230  60  60.9  0  0.05  0.001294461  8.941863e-009  0  0  19.6  17.8  19.6  1;
  17  72  100  230  60  17.9  0  0.05  0.001294461  8.941863e-009  0  0  66.6  60.6  66.6  1;
  91  17  100  230  60  43  0  0.05  0.001294461  8.941863e-009  0  0  27.7  25.2  27.7  1;
  1  109  100  230  60  80  0  0.05  0.001294461  8.941863e-009  0  0  14.9  13.6  14.9  1;
  61  84  100  400  60  63  0  0.03380645  0.000933966  1.26263e-008  0  0  79.3  72.1  79.3  1;
  60  108  100  230  60  20  0  0.05  0.001294461  8.941863e-009  0  0  59.6  54.2  59.6  1;
  60  91  100  230  60  26.1  0  0.05  0.001294461  8.941863e-009  0  0  45.7  41.5  45.7  1;
  60  108  100  230  60  20  0  0.05  0.001294461  8.941863e-009  0  0  59.6  54.2  59.6  1;
  60  64  100  230  60  65  0  0.05  0.001294461  8.941863e-009  0  0  18.3  16.7  18.3  1;
  51  71  100  400  60  33.3  0  0.03380645  0.000933966  1.26263e-008  0  0  150  137  150  1;
  61  84  100  400  60  63  0  0.03380645  0.000933966  1.26263e-008  0  0  79.3  72.1  79.3  1;
  110  84  100  400  60  152  0  0.03380645  0.000933966  1.26263e-008  0  0  32.9  29.9  32.9  1;
  60  83  100  230  60  64  0  0.05  0.001294461  8.941863e-009  0  0  18.6  16.9  18.6  1;
  60  83  100  230  60  64  0  0.05  0.001294461  8.941863e-009  0  0  18.6  16.9  18.6  1;
  60  91  100  230  60  26.1  0  0.05  0.001294461  8.941863e-009  0  0  45.7  41.5  45.7  1;
  110  61  100  400  60  164  0  0.03380645  0.000933966  1.26263e-008  0  0  30.5  27.7  30.5  1;
  109  11  100  230  60  25  0  0.05  0.001294461  8.941863e-009  0  0  47.7  43.4  47.7  1;
  110  36  100  400  60  314  0  0.03380645  0.000861826  1.26263e-008  0  0  15.9  14.5  15.9  1;
  64  72  100  230  60  30.3  0  0.05  0.001294461  8.941863e-009  0  0  39.4  35.8  39.4  1;
  40  32  100  230  60  31  0  0.05  0.001294461  8.941863e-009  0  0  38.5  35  38.5  1;
 ];

Shunt.con = [ ... 
  58  100  400  60  0  0.00125  1;
  75  100  230  60  0  0.000675  1;
  23  100  115  60  0  0.000907372  0;
  31  100  230  60  0  0.001512287  1;
 ];

SW.con = [ ... 
  55  100  765  1.05  0  1.5  -1.5  1.1  0.9  30  1  1  1;
 ];

PV.con = [ ... 
  70  100  115  4.4039  1.05  0.8  -0.2  1.1  0.9  1  1;
  86  100  115  2.82205  1.04  0.8  -0.2  1.1  0.9  1  1;
  106  100  138  10.4361  1.05  0.8  -0.2  1.1  0.9  1  1;
  14  100  400  13.1628  1.03  0.8  -0.2  1.1  0.9  1  1;
  50  100  230  2.9239  1.03  0.8  -0.2  1.1  0.9  1  1;
  91  100  230  4.901  1.05  0.8  -0.2  1.1  0.9  1  1;
  71  100  400  14.6386  1.03  0.8  -0.2  1.1  0.9  1  1;
  47  100  230  5.04  1.02  0.8  -0.2  1.1  0.9  1  1;
  43  100  400  2.1  1.02  0.8  -0.2  1.1  0.9  1  1;
  42  100  400  2.1  1.02  0.8  -0.2  1.1  0.9  1  1;
  46  100  230  1.05  1.02  0.8  -0.2  1.1  0.9  1  1;
  45  100  230  2.997  1.02  0.8  -0.2  1.1  0.9  1  1;
  101  100  230  11.102  1.05  0.8  -0.2  1.1  0.9  1  1;
  44  100  230  7.77  1.02  0.8  -0.2  1.1  0.9  1  1;
  102  100  230  1.1667  1.05  0.8  -0.2  1.1  0.9  1  1;
  85  100  230  2.861  1.05  0.8  -0.2  1.1  0.9  1  1;
  23  100  115  2.82205  1.07  0.8  -0.2  1.1  0.9  1  1;
  90  100  230  1.7982  1.05  0.8  -0.2  1.1  0.9  1  1;
  88  100  138  4.62  1.05  0.8  -0.2  1.1  0.9  1  1;
  49  100  230  7.4839  1.02  0.8  -0.2  1.1  0.9  1  1;
  84  100  400  11.7691  1.05  0.8  -0.2  1.1  0.9  1  1;
  52  100  230  3.2368  1.05  0.8  -0.2  1.1  0.9  1  1;
  53  100  400  13.5944  1.05  0.8  -0.2  1.1  0.9  1  1;
  94  100  765  0  1.05  2.8  -3  1.1  0.9  1  1;
  66  100  765  0  1.05  2.8  -3  1.1  0.9  1  1;
 ];

PQ.con = [ ... 
  7  100  230  0.691569  0.3347408  1.2  0.8  0  0;
  107  100  230  0.3107236  0.2205515  1.2  0.8  0  1;
  6  100  230  0.1272701  0.1067911  1.2  0.8  0  1;
  41  100  400  4.856208  2.351978  1.2  0.8  0  1;
  3  100  230  2.738077  1.326097  1.2  0.8  0  1;
  89  100  230  1.095252  0.5304173  1.2  0.8  0  1;
  1  100  230  1.724848  0.9256303  1.2  0.8  0  1;
  11  100  230  4.467643  2.447082  1.2  0.8  0  1;
  108  100  230  4.216426  2.184286  1.2  0.8  0  1;
  60  100  230  4.033724  2.040075  1.2  0.8  0  1;
  91  100  230  12.33834  5.975692  1.2  0.8  0  1;
  111  100  765  0.0488  19.5074  1.2  0.8  0  0;
  2  100  230  4.756386  2.474745  1.2  0.8  0  1;
  17  100  230  1.489393  0.7213762  1.2  0.8  0  1;
  72  100  230  2.234143  1.082064  1.2  0.8  0  1;
  85  100  230  2.401299  1.163015  1.2  0.8  0  1;
  12  100  230  0.3312026  0.1819523  1.2  0.8  0  1;
  92  100  230  0.1656549  0.09092256  1.2  0.8  0  1;
  20  100  230  1.125488  0.5790952  1.2  0.8  0  1;
  97  100  230  3.97947  2.0152  1.2  0.8  0  1;
  93  100  400  0.5623689  0.3331325  1.2  0.8  0  1;
  50  100  230  3.236757  1.567664  1.2  0.8  0  1;
  69  100  230  0.398644  0.2455338  1.2  0.8  0  1;
  30  100  400  0.9710915  0.4702669  1.2  0.8  0  1;
  80  100  400  3.236757  1.567664  1.2  0.8  0  1;
  19  100  230  2.427568  1.175775  1.2  0.8  0  1;
  58  100  400  2.010589  1.403403  1.2  0.8  0  1;
  37  100  230  0.3048265  0.2202299  1.2  0.8  0  1;
  32  100  230  0.3048265  0.2202299  1.2  0.8  0  1;
  51  100  400  39.24552  19.06865  1.2  0.8  0  1;
  24  100  138  1.737071  0.8413553  1.2  0.8  0  1;
  9  100  230  0.5426404  0.2773781  1.2  0.8  0  1;
  59  100  230  3.788619  1.834963  1.2  0.8  0  1;
  62  100  765  0.0488  19.5074  1.2  0.8  0  1;
  81  100  230  2.525782  1.223273  1.2  0.8  0  1;
  101  100  230  3.788619  1.834963  1.2  0.8  0  1;
  8  100  230  2.525782  1.223273  1.2  0.8  0  1;
  94  100  765  0.01308084  5.229012  1.2  0.8  0  1;
  22  100  230  6.3144  3.058236  1.2  0.8  0  1;
  83  100  230  2.427825  1.17586  1.2  0.8  0  1;
  73  100  765  0.0163  6.5025  1.2  0.8  0  1;
  15  100  115  0.4928475  0.2387039  1.2  0.8  0  1;
  95  100  230  0.1243752  0.06025764  1.2  0.8  0  1;
  109  100  230  1.057296  0.5120827  1.2  0.8  0  1;
  35  100  230  3.129859  1.515876  1.2  0.8  0  1;
  56  100  115  0.8092751  0.3919534  1.2  0.8  0  1;
  88  100  138  4.971255  2.407732  1.2  0.8  0  1;
  104  100  138  1.737071  0.8413553  1.2  0.8  0  1;
  33  100  138  1.737071  0.8413553  1.2  0.8  0  1;
  78  100  138  1.737071  0.8413553  1.2  0.8  0  1;
  106  100  138  8.92242  4.321288  1.2  0.8  0  0;
  87  100  115  0.8092751  0.3919534  1.2  0.8  0  1;
  28  100  115  0.2738131  0.1326043  1.2  0.8  0  1;
  75  100  230  0.0264  10.58  1.2  0.8  0  0;
  32  100  230  0.0264  10.58  1.2  0.8  0  0;
  39  100  230  0.3107236  0.2205515  1.2  0.8  0  1;
  96  100  230  0.0264  10.58  1.2  0.8  0  0;
  98  100  400  0.02  8  1.2  0.8  0  0;
  110  100  400  0.02  8  1.2  0.8  0  1;
  36  100  400  0.02  8  1.2  0.8  0  0;
  57  1322.5  230  0.0331  13.225  1.2  0.8  0  0;
  65  100  400  0.08  31.9999  1.2  0.8  0  0;
  61  100  400  0.04  16  1.2  0.8  0  1;
  68  100  400  0.04  16  1.2  0.8  1  0;
  37  100  230  0.0132  5.29  1.2  0.8  0  1;
  49  100  230  0.2738131  0.1326043  1.2  0.8  0  1;
  75  100  230  3.693407  1.817915  1.2  0.8  0  1;
  74  100  115  0.2738131  0.1326043  1.2  0.8  0  1;
  29  100  115  0.2738131  0.1326043  1.2  0.8  0  1;
  13  100  115  0.1642825  0.07956796  1.2  0.8  0  1;
  70  100  115  0.9856949  0.4774078  1.2  0.8  0  1;
  10  100  230  0.5216253  0.2526103  1.2  0.8  0  1;
  31  100  230  0.9322779  0.6615474  1.2  0.8  0  1;
 ];

Bus.names = {... 
  'Acarigua II 230kV'; 'Aragua 230kV'; 'Barbacoa I 230kV'; 'Barbacoa II 230kV'; 'Barbacoa II 400kV'; 
  'Barinas IV 230kV'; 'Boa Vista (Brasil)'; 'Boyaca 230kV'; 'Buena Vista 230kV'; 'Cabimas 230kV'; 
  'Cabudare 230kV'; 'Calabozo 230kV'; 'Cariaco'; 'Caruachi'; 'Casanay 115kV'; 
  'Casanay 230kV'; 'Caña de Azucar 230kV'; 'Chicopata'; 'Ciudad Bolivar 230kV'; 'Ciudad Losada 230kV'; 
  'Ciudad Losada 400kV'; 'Convento 230kV'; 'Coro II'; 'Cuatricentenario 138kV'; 'Cuatricentenario 230kV'; 
  'Cuatricentenario 400kV'; 'Cuestecita (Colombia)'; 'Cumana II'; 'Cumana III'; 'El Callao II 400kV'; 
  'El Corozo 230kV'; 'El Indio 230kV'; 'El Rincon 138kV'; 'El Rincon 230kV'; 'El Tablazo 230kV'; 
  'El Tablazo 400kV'; 'El Tigre 230kV'; 'El Tigre 400kV'; 'El Vigia II 230kV'; 'Furrial 230kV'; 
  'Furrial 400kV'; 'Gen. Anz 2012-1'; 'Gen. Anz 2012-2'; 'Gen. Barinas 1'; 'Gen. Barinas 2012'; 
  'Gen. Guarico 2012'; 'Gen. Miranda 2012'; 'Guanta II 115kV'; 'Guanta II 230kV'; 'Guayana A'; 
  'Guayana B'; 'Guri 230kV'; 'Guri 400kV A'; 'Guri 400kV B'; 'Guri 765kV'; 
  'Isiro 115kV'; 'Isiro 230kV'; 'Jose 400kV'; 'Junquito 230kV'; 'La Arenosa 230kV'; 
  'La Arenosa 400kV'; 'La Arenosa 765kV'; 'La Canoa 400kV'; 'La Horqueta 230kV'; 'La Horqueta 400kV'; 
  'La Horqueta 765kV'; 'Las Claritas 230kV'; 'Las Claritas 400kV'; 'Las Flores 230kV'; 'Luisa Caceres'; 
  'Macagua II'; 'Macaro 230kV'; 'Malena'; 'Manzanares'; 'Morochas 230kV'; 
  'P. Iguana'; 'P. Palmas'; 'P. Piedra 138kV'; 'P. Piedra 230kV'; 'Palital 400kV'; 
  'Papelon 230kV'; 'Peonias'; 'Planta Centro 230kV'; 'Planta Centro 400kV'; 'Planta Paez 230kV'; 
  'Punto Fijo I'; 'Punto Fijo II'; 'Ramon Laguna 138kV'; 'Rio Chico II'; 'San Agaton'; 
  'San Diego 230kV'; 'San Fernando II 230kV'; 'San Geronimo 400kV'; 'San Geronimo 765kV'; 'San Mateo (Colombia)'; 
  'Santa Elena'; 'Santa Teresa 230kV'; 'Santa Teresa 400kV'; 'Sur OMZ 230kV'; 'Sur OMZ 765kV'; 
  'Tacoa 230kV'; 'Termobarrancas'; 'Tiara 230kV'; 'Trinidad 138kV'; 'Trinidad 230kV'; 
  'Urdaneta 138kV'; 'Uribante 230kV'; 'Valencia 230kV'; 'Yaracuy 230kV'; 'Yaracuy 400kV'; 
  'Yaracuy 765kV'};

Varname.idx = [... 
   55;    62;    66;    73;    94;   100;   111;
  166;   173;   177;   184;   205;   211;   222;
   ];
